REMARK  9 active torsions:
REMARK  status: ('A' for Active; 'I' for Inactive)
REMARK    1  A    between atoms: C2_2  and  C3_3 
REMARK       I    between atoms: C3_3  and  N5_5 
REMARK    2  A    between atoms: N5_5  and  C6_6 
REMARK    3  A    between atoms: N5_5  and  C12_12 
REMARK    4  A    between atoms: C12_12  and  C13_13 
REMARK    5  A    between atoms: C13_13  and  O14_14 
REMARK    6  A    between atoms: N18_18  and  C20_20 
REMARK    7  A    between atoms: C20_20  and  C21_21 
REMARK    8  A    between atoms: C21_21  and  N22_22 
REMARK    9  A    between atoms: N25_25  and  C26_26 
ROOT
ATOM      1  C12 ZIN A   1       0.322  -2.716  -0.383  1.00  0.00     0.065 C 
ATOM      2  C16 ZIN A   1       1.411  -3.627   0.191  1.00  0.00     0.061 C 
ATOM      3  C17 ZIN A   1       2.478  -2.768   0.874  1.00  0.00     0.237 C 
ATOM      4  N18 ZIN A   1       1.865  -1.992   1.959  1.00  0.00    -0.069 N 
ATOM      5  H19 ZIN A   1       1.415  -2.620   2.608  1.00  0.00     0.279 HD
ATOM      6  C30 ZIN A   1       0.869  -1.065   1.407  1.00  0.00     0.237 C 
ATOM      7  C31 ZIN A   1      -0.259  -1.858   0.744  1.00  0.00     0.061 C 
ENDROOT
BRANCH   1   8
ATOM      8  N5  ZIN A   1       0.900  -1.848  -1.412  1.00  0.00    -0.306 N 
ATOM      9  C3  ZIN A   1       2.214  -1.931  -1.703  1.00  0.00     0.224 C 
ATOM     10  O4  ZIN A   1       2.859  -2.886  -1.326  1.00  0.00    -0.273 OA
BRANCH   9  11
ATOM     11  C2  ZIN A   1       2.880  -0.836  -2.496  1.00  0.00     0.099 C 
ATOM     12  C1  ZIN A   1       4.352  -0.736  -2.089  1.00  0.00     0.014 C 
ENDBRANCH   9  11
BRANCH   8  13
ATOM     13  C6  ZIN A   1       0.089  -0.932  -2.091  1.00  0.00     0.038 A 
ATOM     14  C11 ZIN A   1       0.586  -0.248  -3.193  1.00  0.00     0.030 A 
ATOM     15  C10 ZIN A   1      -0.220   0.650  -3.866  1.00  0.00     0.002 A 
ATOM     16  C9  ZIN A   1      -1.514   0.878  -3.436  1.00  0.00     0.000 A 
ATOM     17  C8  ZIN A   1      -2.009   0.202  -2.336  1.00  0.00     0.002 A 
ATOM     18  C7  ZIN A   1      -1.211  -0.702  -1.662  1.00  0.00     0.030 A 
ENDBRANCH   8  13
ENDBRANCH   1   8
BRANCH   1  19
ATOM     19  C13 ZIN A   1      -0.788  -3.570  -1.000  1.00  0.00     0.198 C 
BRANCH  19  20
ATOM     20  O14 ZIN A   1      -0.241  -4.384  -2.039  1.00  0.00    -0.393 OA
ATOM     21  C15 ZIN A   1      -1.199  -5.225  -2.685  1.00  0.00     0.201 C 
ENDBRANCH  19  20
ENDBRANCH   1  19
BRANCH   4  22
ATOM     22  C20 ZIN A   1       2.905  -1.228   2.660  1.00  0.00     0.256 C 
BRANCH  22  23
ATOM     23  C21 ZIN A   1       2.289  -0.517   3.867  1.00  0.00     0.185 C 
BRANCH  23  24
ATOM     24  N22 ZIN A   1       3.326   0.245   4.566  1.00  0.00    -0.197 N 
ATOM     25  C28 ZIN A   1       3.674   1.528   4.326  1.00  0.00     0.363 A 
ATOM     26  N25 ZIN A   1       4.663   1.825   5.197  1.00  0.00    -0.199 N 
ATOM     27  O29 ZIN A   1       3.187   2.272   3.494  1.00  0.00    -0.243 OA
ATOM     28  N24 ZIN A   1       4.907   0.678   5.963  1.00  0.00    -0.043 NA
ATOM     29  N23 ZIN A   1       4.142  -0.225   5.603  1.00  0.00    -0.043 NA
BRANCH  26  30
ATOM     30  C26 ZIN A   1       5.358   3.109   5.314  1.00  0.00     0.153 C 
ATOM     31  C27 ZIN A   1       4.624   3.996   6.322  1.00  0.00     0.029 C 
ENDBRANCH  26  30
ENDBRANCH  23  24
ENDBRANCH  22  23
ENDBRANCH   4  22
TORSDOF 9
