REMARK  20 active torsions:
REMARK  status: ('A' for Active; 'I' for Inactive)
REMARK    1  A    between atoms: C2_2  and  C3_3 
REMARK    2  A    between atoms: C2_2  and  O12_12 
REMARK    3  A    between atoms: C3_3  and  C4_4 
REMARK    4  A    between atoms: C4_4  and  C5_5 
REMARK    5  A    between atoms: C5_5  and  C6_6 
REMARK    6  A    between atoms: O12_12  and  C13_13 
REMARK    7  A    between atoms: C13_13  and  C14_14 
REMARK    8  A    between atoms: C14_14  and  C15_15 
REMARK    9  A    between atoms: C14_14  and  O28_28 
REMARK   10  A    between atoms: C15_15  and  O16_16 
REMARK   11  A    between atoms: O16_16  and  C17_17 
REMARK   12  A    between atoms: C17_17  and  C19_19 
REMARK   13  A    between atoms: C19_19  and  C20_20 
REMARK   14  A    between atoms: C20_20  and  C21_21 
REMARK   15  A    between atoms: C21_21  and  C22_22 
REMARK   16  A    between atoms: O28_28  and  C29_29 
REMARK   17  A    between atoms: C29_29  and  C31_31 
REMARK   18  A    between atoms: C31_31  and  C32_32 
REMARK   19  A    between atoms: C32_32  and  C33_33 
REMARK   20  A    between atoms: C33_33  and  C34_34 
ROOT
ATOM      1  C14 ZIN A   1      -3.619   1.968   0.030  1.00  0.00     0.180 C 
ENDROOT
BRANCH   1   2
ATOM      2  C13 ZIN A   1      -2.393   1.052   0.019  1.00  0.00     0.213 C 
BRANCH   2   3
ATOM      3  O12 ZIN A   1      -1.186   1.859   0.018  1.00  0.00    -0.319 OA
BRANCH   3   4
ATOM      4  C2  ZIN A   1      -0.014   1.204   0.009  1.00  0.00     0.258 C 
ATOM      5  O1  ZIN A   1       0.002  -0.004   0.002  1.00  0.00    -0.265 OA
BRANCH   4   6
ATOM      6  C3  ZIN A   1       1.280   1.975   0.000  1.00  0.00     0.111 C 
BRANCH   6   7
ATOM      7  C4  ZIN A   1       2.457   0.997  -0.016  1.00  0.00     0.014 C 
BRANCH   7   8
ATOM      8  C5  ZIN A   1       3.771   1.780  -0.024  1.00  0.00     0.039 C 
BRANCH   8   9
ATOM      9  C6  ZIN A   1       4.930   0.816  -0.041  1.00  0.00    -0.058 A 
ATOM     10  C11 ZIN A   1       5.450   0.381  -1.245  1.00  0.00     0.007 A 
ATOM     11  C10 ZIN A   1       6.515  -0.500  -1.260  1.00  0.00     0.001 A 
ATOM     12  C9  ZIN A   1       7.055  -0.952  -0.070  1.00  0.00     0.000 A 
ATOM     13  C8  ZIN A   1       6.532  -0.520   1.134  1.00  0.00     0.001 A 
ATOM     14  C7  ZIN A   1       5.469   0.363   1.149  1.00  0.00     0.007 A 
ENDBRANCH   8   9
ENDBRANCH   7   8
ENDBRANCH   6   7
ENDBRANCH   4   6
ENDBRANCH   3   4
ENDBRANCH   2   3
ENDBRANCH   1   2
BRANCH   1  15
ATOM     15  C15 ZIN A   1      -4.888   1.122  -0.094  1.00  0.00     0.213 C 
BRANCH  15  16
ATOM     16  O16 ZIN A   1      -6.042   1.995  -0.203  1.00  0.00    -0.319 OA
BRANCH  16  17
ATOM     17  C17 ZIN A   1      -7.243   1.407  -0.320  1.00  0.00     0.258 C 
ATOM     18  O18 ZIN A   1      -7.326   0.201  -0.331  1.00  0.00    -0.265 OA
BRANCH  17  19
ATOM     19  C19 ZIN A   1      -8.487   2.249  -0.438  1.00  0.00     0.111 C 
BRANCH  19  20
ATOM     20  C20 ZIN A   1      -9.710   1.338  -0.558  1.00  0.00     0.014 C 
BRANCH  20  21
ATOM     21  C21 ZIN A   1     -10.973   2.193  -0.677  1.00  0.00     0.039 C 
BRANCH  21  22
ATOM     22  C22 ZIN A   1     -12.178   1.295  -0.795  1.00  0.00    -0.058 A 
ATOM     23  C27 ZIN A   1     -12.845   0.880   0.342  1.00  0.00     0.007 A 
ATOM     24  C26 ZIN A   1     -13.953   0.061   0.233  1.00  0.00     0.001 A 
ATOM     25  C25 ZIN A   1     -14.388  -0.352  -1.012  1.00  0.00     0.000 A 
ATOM     26  C24 ZIN A   1     -13.718   0.059  -2.149  1.00  0.00     0.001 A 
ATOM     27  C23 ZIN A   1     -12.613   0.882  -2.041  1.00  0.00     0.007 A 
ENDBRANCH  21  22
ENDBRANCH  20  21
ENDBRANCH  19  20
ENDBRANCH  17  19
ENDBRANCH  16  17
ENDBRANCH  15  16
ENDBRANCH   1  15
BRANCH   1  28
ATOM     28  O28 ZIN A   1      -3.654   2.714   1.275  1.00  0.00    -0.312 OA
BRANCH  28  29
ATOM     29  C29 ZIN A   1      -4.217   3.932   1.239  1.00  0.00     0.259 C 
ATOM     30  O30 ZIN A   1      -4.666   4.360   0.202  1.00  0.00    -0.265 OA
BRANCH  29  31
ATOM     31  C31 ZIN A   1      -4.291   4.765   2.493  1.00  0.00     0.111 C 
BRANCH  31  32
ATOM     32  C32 ZIN A   1      -4.974   6.098   2.180  1.00  0.00     0.014 C 
BRANCH  32  33
ATOM     33  C33 ZIN A   1      -5.048   6.944   3.453  1.00  0.00     0.039 C 
BRANCH  33  34
ATOM     34  C34 ZIN A   1      -5.721   8.257   3.145  1.00  0.00    -0.058 A 
ATOM     35  C39 ZIN A   1      -7.093   8.375   3.263  1.00  0.00     0.007 A 
ATOM     36  C38 ZIN A   1      -7.710   9.580   2.985  1.00  0.00     0.001 A 
ATOM     37  C37 ZIN A   1      -6.955  10.665   2.579  1.00  0.00     0.000 A 
ATOM     38  C36 ZIN A   1      -5.584  10.546   2.456  1.00  0.00     0.001 A 
ATOM     39  C35 ZIN A   1      -4.966   9.341   2.738  1.00  0.00     0.007 A 
ENDBRANCH  33  34
ENDBRANCH  32  33
ENDBRANCH  31  32
ENDBRANCH  29  31
ENDBRANCH  28  29
ENDBRANCH   1  28
TORSDOF 20
