REMARK  3 active torsions:
REMARK  status: ('A' for Active; 'I' for Inactive)
REMARK    1  A    between atoms: C7_7  and  N9_8 
REMARK    2  A    between atoms: C11_10  and  C12_11 
REMARK    3  A    between atoms: C12_11  and  C13_12 
ROOT
ATOM      1  N9  <0> A   1       0.590  -4.231   1.030  1.00  0.00    -0.229 N 
ATOM      2  N10 <0> A   1      -0.600  -4.681   1.603  1.00  0.00    -0.173 NA
ATOM      3  C11 <0> A   1      -0.727  -5.869   2.116  1.00  0.00     0.070 A 
ATOM      4  C20 <0> A   1       0.406  -6.795   2.106  1.00  0.00     0.006 A 
ATOM      5  C21 <0> A   1       0.311  -8.079   2.647  1.00  0.00     0.014 A 
ATOM      6  C22 <0> A   1       1.407  -8.912   2.613  1.00  0.00     0.001 A 
ATOM      7  C23 <0> A   1       2.603  -8.490   2.048  1.00  0.00     0.001 A 
ATOM      8  C24 <0> A   1       2.720  -7.228   1.509  1.00  0.00     0.018 A 
ATOM      9  C25 <0> A   1       1.624  -6.367   1.532  1.00  0.00     0.046 A 
ATOM     10  C26 <0> A   1       1.688  -5.013   0.968  1.00  0.00     0.275 A 
ATOM     11  O27 <0> A   1       2.715  -4.600   0.459  1.00  0.00    -0.266 OA
ENDROOT
BRANCH   1  12
ATOM     12  C7  <0> A   1       0.646  -2.877   0.475  1.00  0.00     0.115 C 
ATOM     13  C6  <0> A   1      -0.380  -2.738  -0.620  1.00  0.00     0.029 C 
ATOM     14  C5  <0> A   1       0.042  -1.756  -1.730  1.00  0.00     0.030 C 
ATOM     15  C4  <0> A   1       0.695  -0.478  -1.174  1.00  0.00     0.234 C 
ATOM     16  N2  <0> A   1       0.002  -0.004   0.002  1.00  0.00    -0.075 N 
ATOM     17  C1  <0> A   1      -0.018   1.465   0.010  1.00  0.00     0.269 C 
ATOM     18  H3  <0> A   1      -0.942  -0.359   0.009  1.00  0.00     0.279 HD
ATOM     19  C29 <0> A   1       0.731  -0.500   1.182  1.00  0.00     0.236 C 
ATOM     20  C28 <0> A   1       0.343  -1.847   1.590  1.00  0.00     0.055 C 
ENDBRANCH   1  12
BRANCH   3  21
ATOM     21  C12 <0> A   1      -2.041  -6.292   2.720  1.00  0.00     0.100 C 
BRANCH  21  22
ATOM     22  C13 <0> A   1      -3.034  -5.164   2.603  1.00  0.00    -0.052 A 
ATOM     23  C19 <0> A   1      -3.842  -5.069   1.485  1.00  0.00     0.009 A 
ATOM     24  C18 <0> A   1      -4.757  -4.038   1.380  1.00  0.00     0.024 A 
ATOM     25  C16 <0> A   1      -4.856  -3.095   2.388  1.00  0.00     0.034 A 
ATOM     26  C15 <0> A   1      -4.043  -3.188   3.503  1.00  0.00     0.024 A 
ATOM     27 Cl17 <0> A   1      -5.999  -1.796   2.253  1.00  0.00    -0.084 Cl
ATOM     28  C14 <0> A   1      -3.132  -4.223   3.610  1.00  0.00     0.009 A 
ENDBRANCH  21  22
ENDBRANCH   3  21
TORSDOF 3
