REMARK  2 active torsions:
REMARK  status: ('A' for Active; 'I' for Inactive)
REMARK    1  A    between atoms: C4_4  and  C5_5 
REMARK       I    between atoms: C5_5  and  N7_7 
REMARK    2  A    between atoms: N7_7  and  C8_8 
ROOT
ATOM      1  C5  ZIN A   1      -0.091  -3.196  -1.704  1.00  0.00     0.273 C 
ATOM      2  O6  ZIN A   1      -0.062  -4.353  -1.331  1.00  0.00    -0.266 OA
ATOM      3  N7  ZIN A   1      -0.078  -2.913  -3.022  1.00  0.00    -0.351 N 
ATOM      4  H31 ZIN A   1      -0.101  -1.990  -3.320  1.00  0.00     0.163 HD
ENDROOT
BRANCH   3   5
ATOM      5  C8  ZIN A   1      -0.029  -4.007  -4.012  1.00  0.00     0.088 C 
ATOM      6  C18 ZIN A   1       0.608  -3.477  -5.288  1.00  0.00     0.058 C 
ATOM      7  C16 ZIN A   1       0.370  -4.366  -6.496  1.00  0.00     0.190 C 
ATOM      8  C15 ZIN A   1      -0.470  -3.599  -7.529  1.00  0.00     0.033 C 
ATOM      9  N19 ZIN A   1      -0.319  -5.610  -6.176  1.00  0.00    -0.066 N 
ATOM     10  C14 ZIN A   1      -1.851  -3.308  -6.936  1.00  0.00     0.004 C 
ATOM     11  C13 ZIN A   1      -2.513  -4.616  -6.496  1.00  0.00     0.033 C 
ATOM     12  C11 ZIN A   1      -1.587  -5.345  -5.509  1.00  0.00     0.190 C 
ATOM     13  C10 ZIN A   1      -1.446  -4.510  -4.248  1.00  0.00     0.058 C 
ATOM     14  H20 ZIN A   1      -0.551  -6.054  -7.077  1.00  0.00     0.280 HD
ATOM     15  C21 ZIN A   1       0.519  -6.552  -5.448  1.00  0.00     0.270 C 
ENDBRANCH   3   5
BRANCH   1  16
ATOM     16  C4  ZIN A   1      -0.140  -2.104  -0.716  1.00  0.00     0.157 A 
ATOM     17  N3  ZIN A   1      -0.175  -0.813  -0.969  1.00  0.00    -0.166 NA
ATOM     18  N2  ZIN A   1      -0.213  -0.114   0.107  1.00  0.00    -0.273 N 
ATOM     19  C1  ZIN A   1      -0.257   1.350   0.141  1.00  0.00     0.180 C 
ATOM     20  C27 ZIN A   1      -0.202  -0.914   1.220  1.00  0.00     0.065 A 
ATOM     21  C22 ZIN A   1      -0.160  -2.240   0.747  1.00  0.00     0.028 A 
ATOM     22  C26 ZIN A   1      -0.237  -0.683   2.591  1.00  0.00     0.032 A 
ATOM     23  C23 ZIN A   1      -0.143  -3.303   1.644  1.00  0.00     0.016 A 
ATOM     24  C24 ZIN A   1      -0.172  -3.053   2.988  1.00  0.00     0.001 A 
ATOM     25  C25 ZIN A   1      -0.219  -1.749   3.463  1.00  0.00     0.002 A 
ENDBRANCH   1  16
TORSDOF 2
