REMARK  8 active torsions:
REMARK  status: ('A' for Active; 'I' for Inactive)
REMARK    1  A    between atoms: O2_2  and  C3_3 
REMARK    2  A    between atoms: C7_7  and  O8_8 
REMARK    3  A    between atoms: O8_8  and  C9_9 
REMARK    4  A    between atoms: C17_15  and  C18_16 
REMARK       I    between atoms: C18_16  and  N20_18 
REMARK    5  A    between atoms: N20_18  and  S21_19 
REMARK    6  A    between atoms: S21_19  and  C24_22 
REMARK    7  A    between atoms: C44_40  and  C45_41 
REMARK    8  A    between atoms: C47_43  and  C48_44 
ROOT
ATOM      1  C9  ZIN A   1       3.705  -1.749  -6.583  1.00  0.00     0.130 C 
ATOM      2  C11 ZIN A   1       5.102  -2.139  -6.077  1.00  0.00     0.047 C 
ATOM      3  C12 ZIN A   1       6.101  -1.313  -6.899  1.00  0.00     0.093 C 
ATOM      4  C14 ZIN A   1       7.297  -2.120  -7.303  1.00  0.00     0.223 C 
ATOM      5  O15 ZIN A   1       7.124  -2.970  -8.154  1.00  0.00    -0.273 OA
ATOM      6  N16 ZIN A   1       8.484  -1.960  -6.737  1.00  0.00    -0.342 N 
ATOM      7  C17 ZIN A   1       9.786  -2.063  -7.370  1.00  0.00     0.124 A 
ATOM      8  C27 ZIN A   1      11.039  -2.292  -6.522  1.00  0.00     0.053 A 
ATOM      9  C28 ZIN A   1      10.737  -0.894  -7.044  1.00  0.00     0.048 A 
ATOM     10  C30 ZIN A   1      11.513  -0.324  -8.200  1.00  0.00    -0.023 C 
ATOM     11  C31 ZIN A   1      10.963   0.668  -8.879  1.00  0.00    -0.030 C 
ATOM     12  C32 ZIN A   1       9.602   1.154  -8.447  1.00  0.00     0.027 C 
ATOM     13  C33 ZIN A   1       8.974   2.027  -9.533  1.00  0.00     0.005 C 
ATOM     14  C34 ZIN A   1       7.749   2.736  -8.950  1.00  0.00     0.020 C 
ATOM     15  C35 ZIN A   1       6.506   2.443  -9.787  1.00  0.00     0.125 C 
ATOM     16  N36 ZIN A   1       6.143   1.012  -9.675  1.00  0.00    -0.356 N 
ATOM     17  C37 ZIN A   1       6.197   0.127 -10.843  1.00  0.00     0.152 C 
ATOM     18  C38 ZIN A   1       5.747   0.602  -8.438  1.00  0.00     0.224 C 
ATOM     19  O39 ZIN A   1       5.693   1.415  -7.529  1.00  0.00    -0.273 OA
ATOM     20  C40 ZIN A   1       5.367  -0.821  -8.158  1.00  0.00     0.093 C 
ATOM     21  C42 ZIN A   1       3.858  -0.933  -7.875  1.00  0.00     0.047 C 
ATOM     22  H64 ZIN A   1       8.481  -1.752  -5.771  1.00  0.00     0.163 HD
ENDROOT
BRANCH   1  23
ATOM     23  O8  ZIN A   1       3.040  -0.960  -5.594  1.00  0.00    -0.345 OA
BRANCH  23  24
ATOM     24  C7  ZIN A   1       2.400  -1.629  -4.603  1.00  0.00     0.084 A 
ATOM     25  C6  ZIN A   1       1.781  -0.931  -3.539  1.00  0.00     0.027 A 
ATOM     26  C5  ZIN A   1       1.811   0.469  -3.477  1.00  0.00     0.019 A 
ATOM     27  C54 ZIN A   1       1.123  -1.667  -2.522  1.00  0.00     0.079 A 
ATOM     28  C4  ZIN A   1       1.208   1.115  -2.441  1.00  0.00     0.038 A 
ATOM     29  C3  ZIN A   1       0.556   0.399  -1.433  1.00  0.00     0.076 A 
ATOM     30  C55 ZIN A   1       0.513  -0.977  -1.462  1.00  0.00     0.001 A 
ATOM     31  C56 ZIN A   1      -0.187  -1.737  -0.366  1.00  0.00     0.054 C 
ATOM     32  N53 ZIN A   1       1.093  -3.003  -2.578  1.00  0.00    -0.245 NA
ATOM     33  C44 ZIN A   1       1.668  -3.664  -3.568  1.00  0.00     0.096 A 
ATOM     34  C43 ZIN A   1       2.335  -2.997  -4.605  1.00  0.00     0.072 A 
BRANCH  29  35
ATOM     35  O2  ZIN A   1      -0.038   1.067  -0.411  1.00  0.00    -0.355 OA
ATOM     36  C1  ZIN A   1       0.039   2.494  -0.437  1.00  0.00     0.210 C 
ENDBRANCH  29  35
BRANCH  33  37
ATOM     37  C45 ZIN A   1       1.606  -5.141  -3.582  1.00  0.00     0.126 A 
ATOM     38  S52 ZIN A   1       2.311  -6.182  -4.816  1.00  0.00    -0.078 SA
ATOM     39  C51 ZIN A   1       1.717  -7.599  -3.953  1.00  0.00     0.079 A 
ATOM     40  C47 ZIN A   1       1.061  -7.179  -2.862  1.00  0.00     0.046 A 
ATOM     41  N46 ZIN A   1       1.016  -5.881  -2.688  1.00  0.00    -0.243 NA
BRANCH  40  42
ATOM     42  C48 ZIN A   1       0.417  -8.140  -1.897  1.00  0.00     0.030 C 
ATOM     43  C49 ZIN A   1      -0.983  -8.503  -2.397  1.00  0.00     0.016 C 
ATOM     44  C50 ZIN A   1       1.266  -9.409  -1.796  1.00  0.00     0.016 C 
ENDBRANCH  40  42
ENDBRANCH  33  37
ENDBRANCH  23  24
ENDBRANCH   1  23
BRANCH   7  45
ATOM     45  C18 ZIN A   1       9.829  -2.579  -8.788  1.00  0.00     0.282 C 
ATOM     46  O19 ZIN A   1      10.774  -3.240  -9.164  1.00  0.00    -0.268 OA
ATOM     47  N20 ZIN A   1       8.817  -2.306  -9.636  1.00  0.00    -0.124 NA
BRANCH  47  48
ATOM     48  S21 ZIN A   1       8.864  -2.873 -11.191  1.00  0.00     0.258 S 
ATOM     49  O22 ZIN A   1       9.988  -2.222 -11.767  1.00  0.00    -0.203 OA
ATOM     50  O23 ZIN A   1       8.829  -4.287 -11.050  1.00  0.00    -0.203 OA
BRANCH  48  51
ATOM     51  C24 ZIN A   1       7.326  -2.269 -11.939  1.00  0.00     0.131 A 
ATOM     52  C26 ZIN A   1       7.064  -2.630 -13.403  1.00  0.00     0.023 A 
ATOM     53  C25 ZIN A   1       7.442  -1.197 -13.024  1.00  0.00     0.023 A 
ENDBRANCH  48  51
ENDBRANCH  47  48
ENDBRANCH   7  45
TORSDOF 8
