REMARK  8 active torsions:
REMARK  status: ('A' for Active; 'I' for Inactive)
REMARK    1  A    between atoms: C2_2  and  C3_3 
REMARK    2  A    between atoms: C3_3  and  C4_4 
REMARK    3  A    between atoms: C4_4  and  N5_5 
REMARK    4  A    between atoms: C8_8  and  O10_9 
REMARK    5  A    between atoms: C11_10  and  O13_11 
REMARK    6  A    between atoms: C14_12  and  O16_13 
REMARK    7  A    between atoms: C17_14  and  C19_15 
REMARK    8  A    between atoms: C19_15  and  O20_16 
ROOT
ATOM      1  N5  ZIN A   1       1.440  -2.513  -2.671  1.00  0.00    -0.060 N 
ATOM      2  H6  ZIN A   1       0.995  -2.289  -3.548  1.00  0.00     0.280 HD
ATOM      3  C7  ZIN A   1       2.820  -2.012  -2.683  1.00  0.00     0.269 C 
ATOM      4  C8  ZIN A   1       3.475  -2.279  -1.326  1.00  0.00     0.175 C 
ATOM      5  C11 ZIN A   1       3.480  -3.786  -1.055  1.00  0.00     0.179 C 
ATOM      6  C14 ZIN A   1       2.043  -4.311  -1.119  1.00  0.00     0.182 C 
ATOM      7  C17 ZIN A   1       1.443  -3.969  -2.482  1.00  0.00     0.242 C 
ENDROOT
BRANCH   1   8
ATOM      8  C4  ZIN A   1       0.700  -1.879  -1.572  1.00  0.00     0.235 C 
BRANCH   8   9
ATOM      9  C3  ZIN A   1       0.587  -0.376  -1.833  1.00  0.00     0.027 C 
BRANCH   9  10
ATOM     10  C2  ZIN A   1      -0.184   0.284  -0.688  1.00  0.00    -0.003 C 
ATOM     11  C1  ZIN A   1      -0.297   1.787  -0.949  1.00  0.00     0.005 C 
ENDBRANCH   9  10
ENDBRANCH   8   9
ENDBRANCH   1   8
BRANCH   7  12
ATOM     12  C19 ZIN A   1       0.006  -4.491  -2.552  1.00  0.00     0.200 C 
BRANCH  12  13
ATOM     13  O20 ZIN A   1      -0.542  -4.208  -3.841  1.00  0.00    -0.399 OA
ATOM     14  H37 ZIN A   1      -1.452  -4.512  -3.957  1.00  0.00     0.209 HD
ENDBRANCH  12  13
ENDBRANCH   7  12
BRANCH   6  15
ATOM     15  O16 ZIN A   1       2.045  -5.729  -0.939  1.00  0.00    -0.391 OA
ATOM     16  H34 ZIN A   1       2.416  -6.017  -0.094  1.00  0.00     0.210 HD
ENDBRANCH   6  15
BRANCH   4  17
ATOM     17  O10 ZIN A   1       4.818  -1.791  -1.340  1.00  0.00    -0.391 OA
ATOM     18  H32 ZIN A   1       5.295  -1.927  -0.510  1.00  0.00     0.210 HD
ENDBRANCH   4  17
BRANCH   5  19
ATOM     19  O13 ZIN A   1       4.025  -4.036   0.242  1.00  0.00    -0.390 OA
ATOM     20  H33 ZIN A   1       4.933  -3.724   0.355  1.00  0.00     0.210 HD
ENDBRANCH   5  19
TORSDOF 8
