REMARK  4 active torsions:
REMARK  status: ('A' for Active; 'I' for Inactive)
REMARK    1  A    between atoms: C2_2  and  C3_3 
REMARK    2  A    between atoms: C3_3  and  N4_4 
REMARK    3  A    between atoms: C13_13  and  O14_14 
REMARK    4  A    between atoms: C23_22  and  O24_23 
ROOT
ATOM      1  N4  ZIN A   1       1.368  -1.678   1.115  1.00  0.00    -0.060 N 
ATOM      2  H5  ZIN A   1       0.523  -2.231   1.124  1.00  0.00     0.280 HD
ATOM      3  C6  ZIN A   1       1.462  -0.921   2.366  1.00  0.00     0.237 C 
ATOM      4  C7  ZIN A   1       2.723  -0.048   2.359  1.00  0.00     0.048 C 
ATOM      5  C8  ZIN A   1       3.934  -0.959   2.167  1.00  0.00     0.058 C 
ATOM      6  C9  ZIN A   1       3.961  -1.999   3.260  1.00  0.00    -0.001 A 
ATOM      7  C10 ZIN A   1       3.321  -3.217   3.251  1.00  0.00    -0.046 A 
ATOM      8  C11 ZIN A   1       3.488  -3.995   4.383  1.00  0.00     0.011 A 
ATOM      9  C12 ZIN A   1       4.306  -3.561   5.413  1.00  0.00     0.040 A 
ATOM     10  C13 ZIN A   1       5.011  -2.360   5.374  1.00  0.00     0.099 A 
ATOM     11  C15 ZIN A   1       4.843  -1.561   4.237  1.00  0.00     0.110 A 
ATOM     12  O16 ZIN A   1       5.419  -0.399   3.861  1.00  0.00    -0.334 OA
ATOM     13  C17 ZIN A   1       5.246  -0.230   2.422  1.00  0.00     0.214 C 
ATOM     14  C19 ZIN A   1       6.418  -0.886   1.752  1.00  0.00     0.157 C 
ATOM     15  O20 ZIN A   1       7.518  -0.709   2.216  1.00  0.00    -0.295 OA
ATOM     16  C21 ZIN A   1       6.287  -1.750   0.534  1.00  0.00     0.084 C 
ATOM     17  C22 ZIN A   1       5.047  -2.639   0.655  1.00  0.00     0.048 C 
ATOM     18  C23 ZIN A   1       3.800  -1.729   0.863  1.00  0.00     0.102 C 
ATOM     19  C25 ZIN A   1       2.523  -2.567   0.952  1.00  0.00     0.228 C 
ATOM     20  C27 ZIN A   1       2.543  -3.625   2.042  1.00  0.00     0.075 C 
ENDROOT
BRANCH   1  21
ATOM     21  C3  ZIN A   1       1.317  -0.740  -0.015  1.00  0.00     0.262 C 
BRANCH  21  22
ATOM     22  C2  ZIN A   1       0.013   0.014   0.017  1.00  0.00    -0.010 C 
ATOM     23  C1  ZIN A   1       0.013   1.324   0.023  1.00  0.00     0.008 C 
ENDBRANCH  21  22
ENDBRANCH   1  21
BRANCH  18  24
ATOM     24  O24 ZIN A   1       3.692  -0.810  -0.225  1.00  0.00    -0.386 OA
ATOM     25  H44 ZIN A   1       3.595  -1.233  -1.089  1.00  0.00     0.210 HD
ENDBRANCH  18  24
BRANCH  10  26
ATOM     26  O14 ZIN A   1       5.828  -1.982   6.393  1.00  0.00    -0.358 OA
ATOM     27  H39 ZIN A   1       6.742  -2.284   6.298  1.00  0.00     0.217 HD
ENDBRANCH  10  26
TORSDOF 4
