REMARK  3 active torsions:
REMARK  status: ('A' for Active; 'I' for Inactive)
REMARK       I    between atoms: N6_6  and  C7_7 
REMARK    1  A    between atoms: C7_7  and  O9_9 
REMARK    2  A    between atoms: O9_9  and  C10_10 
REMARK    3  A    between atoms: N19_19  and  C20_20 
ROOT
ATOM      1  C10 ZIN A   1       3.439  -5.005  -0.962  1.00  0.00     0.193 A 
ATOM      2  C11 ZIN A   1       4.072  -5.619  -1.971  1.00  0.00     0.119 A 
ATOM      3  N12 ZIN A   1       4.060  -5.511  -3.369  1.00  0.00    -0.359 N 
ATOM      4  C13 ZIN A   1       4.873  -6.339  -4.082  1.00  0.00     0.107 A 
ATOM      5  C14 ZIN A   1       5.672  -7.244  -3.460  1.00  0.00     0.134 A 
ATOM      6  N15 ZIN A   1       5.713  -7.379  -2.141  1.00  0.00    -0.252 NA
ATOM      7  C16 ZIN A   1       4.969  -6.628  -1.362  1.00  0.00     0.156 A 
ATOM      8  C17 ZIN A   1       4.760  -6.502   0.082  1.00  0.00     0.286 A 
ATOM      9  O18 ZIN A   1       5.307  -7.152   0.957  1.00  0.00    -0.265 OA
ATOM     10  N19 ZIN A   1       3.850  -5.522   0.259  1.00  0.00    -0.237 N 
ATOM     11  H36 ZIN A   1       3.489  -4.866  -3.815  1.00  0.00     0.165 HD
ENDROOT
BRANCH   1  12
ATOM     12  O9  ZIN A   1       2.525  -4.007  -1.113  1.00  0.00    -0.241 OA
BRANCH  12  13
ATOM     13  C7  ZIN A   1       2.918  -2.763  -0.782  1.00  0.00     0.369 C 
ATOM     14  N6  ZIN A   1       2.032  -1.748  -0.807  1.00  0.00    -0.325 N 
ATOM     15  C5  ZIN A   1       2.408  -0.404  -0.343  1.00  0.00     0.156 C 
ATOM     16  C27 ZIN A   1       0.661  -1.952  -1.300  1.00  0.00     0.156 C 
ATOM     17  C4  ZIN A   1       2.014   0.611  -1.421  1.00  0.00     0.254 C 
ATOM     18  N2  ZIN A   1       0.589   0.457  -1.739  1.00  0.00    -0.072 N 
ATOM     19  C1  ZIN A   1       0.185   1.500  -2.691  1.00  0.00     0.269 C 
ATOM     20  H3  ZIN A   1       0.045   0.546  -0.894  1.00  0.00     0.279 HD
ATOM     21  C28 ZIN A   1       0.351  -0.865  -2.334  1.00  0.00     0.254 C 
ATOM     22  O8  ZIN A   1       4.071  -2.556  -0.459  1.00  0.00    -0.238 OA
ENDBRANCH  12  13
ENDBRANCH   1  12
BRANCH  10  23
ATOM     23  C20 ZIN A   1       3.377  -5.093   1.500  1.00  0.00     0.138 A 
ATOM     24  N26 ZIN A   1       2.475  -4.126   1.560  1.00  0.00    -0.241 NA
ATOM     25  C25 ZIN A   1       1.998  -3.695   2.711  1.00  0.00     0.142 A 
ATOM     26  C23 ZIN A   1       2.435  -4.235   3.906  1.00  0.00     0.051 A 
ATOM     27  C22 ZIN A   1       3.385  -5.248   3.887  1.00  0.00     0.029 A 
ATOM     28 Cl24 ZIN A   1       1.804  -3.653   5.415  1.00  0.00    -0.083 Cl
ATOM     29  C21 ZIN A   1       3.861  -5.683   2.662  1.00  0.00     0.053 A 
ENDBRANCH  10  23
TORSDOF 3
