REMARK  2 active torsions:
REMARK  status: ('A' for Active; 'I' for Inactive)
REMARK    1  A    between atoms: C2_2  and  C4_4 
REMARK    2  A    between atoms: C7_6  and  O9_7 
ROOT
ATOM      1  C4  <0> A   1      -1.330   1.951   0.019  1.00  0.00     0.288 C 
ATOM      2  C6  <0> A   1      -1.584   2.619  -1.349  1.00  0.00     0.077 C 
ATOM      3  C7  <0> A   1      -3.100   2.471  -1.593  1.00  0.00     0.146 C 
ATOM      4  C10 <0> A   1      -3.634   1.726  -0.350  1.00  0.00     0.265 C 
ATOM      5  N11 <0> A   1      -2.456   0.997   0.188  1.00  0.00    -0.059 N 
ATOM      6  H12 <0> A   1      -2.287   0.157  -0.346  1.00  0.00     0.278 HD
ATOM      7  H13 <0> A   1      -2.593   0.774   1.162  1.00  0.00     0.278 HD
ENDROOT
BRANCH   1   8
ATOM      8  C2  <0> A   1      -0.015   1.215   0.009  1.00  0.00     0.204 C 
ATOM      9  O1  <0> A   1       0.002  -0.004   0.002  1.00  0.00    -0.646 OA
ATOM     10  O3  <0> A   1       1.033   1.839   0.002  1.00  0.00    -0.646 OA
ENDBRANCH   1   8
BRANCH   3  11
ATOM     11  O9  <0> A   1      -3.712   3.757  -1.704  1.00  0.00    -0.394 OA
ATOM     12  H16 <0> A   1      -4.667   3.726  -1.858  1.00  0.00     0.210 HD
ENDBRANCH   3  11
TORSDOF 2
