REMARK minimizedAffinity -5.13288784
REMARK minimizedRMSD -1
REMARK  1 active torsions:
REMARK  status: ('A' for Active; 'I' for Inactive)
REMARK       I    between atoms: N1_1  and  C2_2 
REMARK    1  A    between atoms: C2_2  and  C4_4 
ROOT
ATOM      1  C4  ZIN A   1      -4.421   2.595 -12.055  1.00  0.00     0.049 A 
ATOM      2  C5  ZIN A   1      -3.074   2.478 -12.416  1.00  0.00     0.020 A 
ATOM      3  C6  ZIN A   1      -2.114   2.630 -11.430  1.00  0.00     0.020 A 
ATOM      4  C7  ZIN A   1      -2.514   2.888 -10.132  1.00  0.00     0.116 A 
ATOM      5  N8  ZIN A   1      -3.791   2.992  -9.819  1.00  0.00    -0.272 NA
ATOM      6  C9  ZIN A   1      -4.741   2.862 -10.722  1.00  0.00     0.133 A 
ENDROOT
BRANCH   1   7
ATOM      7  C2  ZIN A   1      -5.487   2.443 -13.067  1.00  0.00     0.250 C 
ATOM      8  N1  ZIN A   1      -6.653   1.853 -12.735  1.00  0.00    -0.366 N 
ATOM      9  H10 ZIN A   1      -7.353   1.754 -13.399  1.00  0.00     0.159 HD
ATOM     10  H11 ZIN A   1      -6.791   1.525 -11.833  1.00  0.00     0.159 HD
ATOM     11  O3  ZIN A   1      -5.313   2.850 -14.199  1.00  0.00    -0.268 OA
ENDBRANCH   1   7
TORSDOF 1
