MODEL 1
REMARK minimizedAffinity 0.704417586
REMARK minimizedRMSD -1
REMARK minimizedAffinity -7.44333839
REMARK minimizedRMSD -1
REMARK  11 active torsions:
REMARK  status: ('A' for Active; 'I' for Inactive)
REMARK    1  A    between atoms: O2_2  and  C3_3 
REMARK    2  A    between atoms: C3_3  and  C5_5 
REMARK    3  A    between atoms: C11_11  and  C12_12 
REMARK    4  A    between atoms: C12_12  and  O14_14 
REMARK    5  A    between atoms: O14_14  and  C15_15 
REMARK    6  A    between atoms: C15_15  and  C16_16 
REMARK    7  A    between atoms: C16_16  and  N17_17 
REMARK    8  A    between atoms: N17_17  and  C19_19 
REMARK    9  A    between atoms: C19_19  and  C20_20 
REMARK   10  A    between atoms: C26_26  and  C28_27 
REMARK   11  A    between atoms: C32_31  and  N33_32 
ROOT
ATOM      1  C5  ZIN A   1       1.351   6.401 -18.249  1.00  0.00     0.052 C 
ATOM      2  C6  ZIN A   1       0.268   6.942 -18.833  1.00  0.00     0.018 C 
ATOM      3  C7  ZIN A   1      -0.298   6.310 -20.080  1.00  0.00     0.069 C 
ATOM      4  N8  ZIN A   1      -0.327   8.057 -18.310  1.00  0.00    -0.362 N 
ATOM      5  C9  ZIN A   1       0.348   8.848 -17.422  1.00  0.00     0.018 C 
ATOM      6  C10 ZIN A   1      -0.132  10.252 -17.162  1.00  0.00     0.069 C 
ATOM      7  C11 ZIN A   1       1.436   8.387 -16.779  1.00  0.00     0.052 C 
ATOM      8  C26 ZIN A   1       1.941   6.988 -16.998  1.00  0.00     0.101 C 
ATOM      9  H43 ZIN A   1      -1.233   8.288 -18.571  1.00  0.00     0.165 HD
ENDROOT
BRANCH   7  10
ATOM     10  C12 ZIN A   1       2.113   9.235 -15.872  1.00  0.00     0.292 C 
ATOM     11  O13 ZIN A   1       3.149   9.779 -16.205  1.00  0.00    -0.259 OA
BRANCH  10  12
ATOM     12  O14 ZIN A   1       1.610   9.439 -14.637  1.00  0.00    -0.316 OA
BRANCH  12  13
ATOM     13  C15 ZIN A   1       2.519   9.903 -13.635  1.00  0.00     0.209 C 
BRANCH  13  14
ATOM     14  C16 ZIN A   1       2.900   8.741 -12.715  1.00  0.00     0.299 C 
BRANCH  14  15
ATOM     15  N17 ZIN A   1       1.981   8.702 -11.569  1.00  0.00     0.090 N 
ATOM     16  C18 ZIN A   1       1.681  10.056 -11.088  1.00  0.00     0.310 C 
BRANCH  15  17
ATOM     17  C19 ZIN A   1       0.749   7.977 -11.906  1.00  0.00     0.310 C 
BRANCH  17  18
ATOM     18  C20 ZIN A   1       0.583   6.806 -10.973  1.00  0.00    -0.030 A 
ATOM     19  C25 ZIN A   1      -0.639   6.169 -10.874  1.00  0.00     0.009 A 
ATOM     20  C24 ZIN A   1      -0.790   5.091 -10.022  1.00  0.00     0.001 A 
ATOM     21  C23 ZIN A   1       0.279   4.657  -9.261  1.00  0.00     0.000 A 
ATOM     22  C22 ZIN A   1       1.500   5.298  -9.355  1.00  0.00     0.001 A 
ATOM     23  C21 ZIN A   1       1.652   6.373 -10.211  1.00  0.00     0.009 A 
ENDBRANCH  17  18
ENDBRANCH  15  17
ENDBRANCH  14  15
ENDBRANCH  13  14
ENDBRANCH  12  13
ENDBRANCH  10  12
ENDBRANCH   7  10
BRANCH   8  24
ATOM     24  C28 ZIN A   1       1.565   6.134 -15.814  1.00  0.00    -0.042 A 
ATOM     25  C36 ZIN A   1       0.271   5.663 -15.685  1.00  0.00     0.044 A 
ATOM     26  C32 ZIN A   1      -0.072   4.876 -14.601  1.00  0.00     0.103 A 
ATOM     27  C31 ZIN A   1       0.876   4.568 -13.644  1.00  0.00     0.036 A 
ATOM     28  C30 ZIN A   1       2.168   5.042 -13.770  1.00  0.00     0.003 A 
ATOM     29  C29 ZIN A   1       2.512   5.827 -14.856  1.00  0.00     0.008 A 
BRANCH  26  30
ATOM     30  N33 ZIN A   1      -1.455   4.367 -14.465  1.00  0.00    -0.116 N 
ATOM     31  O34 ZIN A   1      -1.658   3.168 -14.391  1.00  0.00    -0.532 OA
ATOM     32  O35 ZIN A   1      -2.391   5.145 -14.428  1.00  0.00    -0.532 OA
ENDBRANCH  26  30
ENDBRANCH   8  24
BRANCH   1  33
ATOM     33  C3  ZIN A   1       1.946   5.253 -18.821  1.00  0.00     0.291 C 
ATOM     34  O4  ZIN A   1       1.492   4.150 -18.584  1.00  0.00    -0.260 OA
BRANCH  33  35
ATOM     35  O2  ZIN A   1       3.020   5.381 -19.629  1.00  0.00    -0.323 OA
ATOM     36  C1  ZIN A   1       2.994   4.659 -20.862  1.00  0.00     0.213 C 
ENDBRANCH  33  35
ENDBRANCH   1  33
TORSDOF 11
ENDMDL
