MODEL 1
REMARK minimizedAffinity -3.91420484
REMARK minimizedRMSD -1
REMARK minimizedAffinity -5.94348097
REMARK minimizedRMSD -1
REMARK  11 active torsions:
REMARK  status: ('A' for Active; 'I' for Inactive)
REMARK    1  A    between atoms: O2_2  and  C3_3 
REMARK    2  A    between atoms: C3_3  and  C5_5 
REMARK    3  A    between atoms: C11_11  and  C12_12 
REMARK    4  A    between atoms: C12_12  and  O14_14 
REMARK    5  A    between atoms: O14_14  and  C15_15 
REMARK    6  A    between atoms: C15_15  and  C16_16 
REMARK    7  A    between atoms: C16_16  and  N17_17 
REMARK    8  A    between atoms: N17_17  and  C19_19 
REMARK    9  A    between atoms: C19_19  and  C20_20 
REMARK   10  A    between atoms: C26_26  and  C28_27 
REMARK   11  A    between atoms: C32_31  and  N33_32 
ROOT
ATOM      1  C5  ZIN A   1      31.855  48.928  35.587  1.00  0.00     0.052 C 
ATOM      2  C6  ZIN A   1      30.634  49.389  35.913  1.00  0.00     0.018 C 
ATOM      3  C7  ZIN A   1      30.485  50.352  37.064  1.00  0.00     0.069 C 
ATOM      4  N8  ZIN A   1      29.527  48.996  35.212  1.00  0.00    -0.362 N 
ATOM      5  C9  ZIN A   1      29.569  47.880  34.423  1.00  0.00     0.018 C 
ATOM      6  C10 ZIN A   1      28.283  47.230  33.983  1.00  0.00     0.069 C 
ATOM      7  C11 ZIN A   1      30.745  47.355  34.035  1.00  0.00     0.052 C 
ATOM      8  C26 ZIN A   1      32.052  47.979  34.439  1.00  0.00     0.101 C 
ATOM      9  H43 ZIN A   1      28.707  49.511  35.276  1.00  0.00     0.165 HD
ENDROOT
BRANCH   7  10
ATOM     10  C12 ZIN A   1      30.751  46.197  33.224  1.00  0.00     0.292 C 
ATOM     11  O13 ZIN A   1      30.632  45.098  33.732  1.00  0.00    -0.259 OA
BRANCH  10  12
ATOM     12  O14 ZIN A   1      30.890  46.311  31.887  1.00  0.00    -0.316 OA
BRANCH  12  13
ATOM     13  C15 ZIN A   1      30.217  45.343  31.080  1.00  0.00     0.209 C 
BRANCH  13  14
ATOM     14  C16 ZIN A   1      29.250  46.054  30.131  1.00  0.00     0.299 C 
BRANCH  14  15
ATOM     15  N17 ZIN A   1      29.902  46.259  28.830  1.00  0.00     0.090 N 
ATOM     16  C18 ZIN A   1      29.600  45.156  27.909  1.00  0.00     0.310 C 
BRANCH  15  17
ATOM     17  C19 ZIN A   1      29.520  47.551  28.247  1.00  0.00     0.310 C 
BRANCH  17  18
ATOM     18  C20 ZIN A   1      30.761  48.321  27.873  1.00  0.00    -0.030 A 
ATOM     19  C25 ZIN A   1      31.956  48.059  28.517  1.00  0.00     0.009 A 
ATOM     20  C24 ZIN A   1      33.095  48.761  28.170  1.00  0.00     0.001 A 
ATOM     21  C23 ZIN A   1      33.037  49.731  27.187  1.00  0.00     0.000 A 
ATOM     22  C22 ZIN A   1      31.841  49.996  26.547  1.00  0.00     0.001 A 
ATOM     23  C21 ZIN A   1      30.702  49.291  26.891  1.00  0.00     0.009 A 
ENDBRANCH  17  18
ENDBRANCH  15  17
ENDBRANCH  14  15
ENDBRANCH  13  14
ENDBRANCH  12  13
ENDBRANCH  10  12
ENDBRANCH   7  10
BRANCH   8  24
ATOM     24  C28 ZIN A   1      32.631  48.724  33.263  1.00  0.00    -0.042 A 
ATOM     25  C36 ZIN A   1      33.908  48.430  32.821  1.00  0.00     0.044 A 
ATOM     26  C32 ZIN A   1      34.438  49.110  31.740  1.00  0.00     0.103 A 
ATOM     27  C31 ZIN A   1      33.694  50.089  31.108  1.00  0.00     0.036 A 
ATOM     28  C30 ZIN A   1      32.420  50.387  31.554  1.00  0.00     0.003 A 
ATOM     29  C29 ZIN A   1      31.889  49.703  32.633  1.00  0.00     0.008 A 
BRANCH  26  30
ATOM     30  N33 ZIN A   1      35.801  48.791  31.261  1.00  0.00    -0.116 N 
ATOM     31  O34 ZIN A   1      36.324  49.482  30.406  1.00  0.00    -0.532 OA
ATOM     32  O35 ZIN A   1      36.402  47.837  31.723  1.00  0.00    -0.532 OA
ENDBRANCH  26  30
ENDBRANCH   8  24
BRANCH   1  33
ATOM     33  C3  ZIN A   1      32.976  49.349  36.337  1.00  0.00     0.291 C 
ATOM     34  O4  ZIN A   1      33.663  50.272  35.942  1.00  0.00    -0.260 OA
BRANCH  33  35
ATOM     35  O2  ZIN A   1      33.287  48.724  37.494  1.00  0.00    -0.323 OA
ATOM     36  C1  ZIN A   1      33.642  49.553  38.603  1.00  0.00     0.213 C 
ENDBRANCH  33  35
ENDBRANCH   1  33
TORSDOF 11
ENDMDL
