MODEL 1
REMARK minimizedAffinity -5.73345852
REMARK minimizedRMSD -1
REMARK minimizedAffinity -7.37782907
REMARK minimizedRMSD -1
REMARK  4 active torsions:
REMARK  status: ('A' for Active; 'I' for Inactive)
REMARK    1  A    between atoms: N2_2  and  C5_5 
REMARK    2  A    between atoms: C5_5  and  C6_6 
REMARK    3  A    between atoms: C6_6  and  C7_7 
REMARK    4  A    between atoms: C7_7  and  N8_8 
ROOT
ATOM      1  N8  ZIN A   1      30.712  48.160  29.291  1.00  0.00    -0.346 N 
ATOM      2  C9  ZIN A   1      31.798  48.740  28.623  1.00  0.00     0.041 A 
ATOM      3  C10 ZIN A   1      33.008  48.819  29.304  1.00  0.00     0.030 A 
ATOM      4  C11 ZIN A   1      34.124  49.348  28.691  1.00  0.00     0.002 A 
ATOM      5  C12 ZIN A   1      34.026  49.799  27.387  1.00  0.00     0.001 A 
ATOM      6  C13 ZIN A   1      32.825  49.734  26.719  1.00  0.00     0.009 A 
ATOM      7  C14 ZIN A   1      31.679  49.218  27.327  1.00  0.00    -0.031 A 
ATOM      8  C15 ZIN A   1      30.427  49.293  26.483  1.00  0.00     0.045 C 
ATOM      9  C16 ZIN A   1      29.191  48.789  27.205  1.00  0.00     0.045 C 
ATOM     10  C17 ZIN A   1      29.330  47.335  27.577  1.00  0.00    -0.031 A 
ATOM     11  C18 ZIN A   1      28.738  46.322  26.859  1.00  0.00     0.009 A 
ATOM     12  C19 ZIN A   1      28.898  45.013  27.293  1.00  0.00     0.001 A 
ATOM     13  C20 ZIN A   1      29.637  44.737  28.429  1.00  0.00     0.002 A 
ATOM     14  C21 ZIN A   1      30.238  45.763  29.141  1.00  0.00     0.030 A 
ATOM     15  C22 ZIN A   1      30.086  47.060  28.693  1.00  0.00     0.041 A 
ENDROOT
BRANCH   1  16
ATOM     16  C7  ZIN A   1      30.250  48.683  30.579  1.00  0.00     0.131 C 
BRANCH  16  17
ATOM     17  C6  ZIN A   1      30.764  47.788  31.708  1.00  0.00     0.048 C 
BRANCH  17  18
ATOM     18  C5  ZIN A   1      29.577  47.195  32.469  1.00  0.00     0.233 C 
BRANCH  18  19
ATOM     19  N2  ZIN A   1      29.908  45.833  32.908  1.00  0.00    -0.079 N 
ATOM     20  C1  ZIN A   1      28.804  44.927  32.567  1.00  0.00     0.266 C 
ATOM     21  H3  ZIN A   1      30.051  45.827  33.907  1.00  0.00     0.276 HD
ATOM     22  H4  ZIN A   1      30.751  45.526  32.446  1.00  0.00     0.276 HD
ENDBRANCH  18  19
ENDBRANCH  17  18
ENDBRANCH  16  17
ENDBRANCH   1  16
TORSDOF 4
ENDMDL
