MODEL 1
REMARK minimizedAffinity -5.95479107
REMARK minimizedRMSD -1
REMARK minimizedAffinity -7.54085112
REMARK minimizedRMSD -1
REMARK  4 active torsions:
REMARK  status: ('A' for Active; 'I' for Inactive)
REMARK    1  A    between atoms: N2_2  and  C5_5 
REMARK    2  A    between atoms: C5_5  and  C6_6 
REMARK    3  A    between atoms: C6_6  and  C7_7 
REMARK    4  A    between atoms: C7_7  and  N8_8 
ROOT
ATOM      1  N8  ZIN A   1      30.744  48.144  29.319  1.00  0.00    -0.346 N 
ATOM      2  C9  ZIN A   1      31.828  48.728  28.651  1.00  0.00     0.041 A 
ATOM      3  C10 ZIN A   1      33.042  48.795  29.328  1.00  0.00     0.030 A 
ATOM      4  C11 ZIN A   1      34.157  49.328  28.714  1.00  0.00     0.002 A 
ATOM      5  C12 ZIN A   1      34.054  49.793  27.416  1.00  0.00     0.001 A 
ATOM      6  C13 ZIN A   1      32.850  49.739  26.753  1.00  0.00     0.009 A 
ATOM      7  C14 ZIN A   1      31.705  49.221  27.362  1.00  0.00    -0.031 A 
ATOM      8  C15 ZIN A   1      30.449  49.310  26.524  1.00  0.00     0.045 C 
ATOM      9  C16 ZIN A   1      29.215  48.801  27.247  1.00  0.00     0.045 C 
ATOM     10  C17 ZIN A   1      29.351  47.343  27.602  1.00  0.00    -0.031 A 
ATOM     11  C18 ZIN A   1      28.751  46.340  26.875  1.00  0.00     0.009 A 
ATOM     12  C19 ZIN A   1      28.909  45.026  27.294  1.00  0.00     0.001 A 
ATOM     13  C20 ZIN A   1      29.653  44.735  28.423  1.00  0.00     0.002 A 
ATOM     14  C21 ZIN A   1      30.261  45.751  29.144  1.00  0.00     0.030 A 
ATOM     15  C22 ZIN A   1      30.111  47.053  28.711  1.00  0.00     0.041 A 
ENDROOT
BRANCH   1  16
ATOM     16  C7  ZIN A   1      30.290  48.655  30.614  1.00  0.00     0.131 C 
BRANCH  16  17
ATOM     17  C6  ZIN A   1      30.405  47.551  31.667  1.00  0.00     0.048 C 
BRANCH  17  18
ATOM     18  C5  ZIN A   1      31.600  47.838  32.579  1.00  0.00     0.233 C 
BRANCH  18  19
ATOM     19  N2  ZIN A   1      31.519  46.987  33.774  1.00  0.00    -0.079 N 
ATOM     20  C1  ZIN A   1      30.422  46.024  33.614  1.00  0.00     0.266 C 
ATOM     21  H3  ZIN A   1      31.345  47.562  34.585  1.00  0.00     0.276 HD
ATOM     22  H4  ZIN A   1      32.389  46.490  33.893  1.00  0.00     0.276 HD
ENDBRANCH  18  19
ENDBRANCH  17  18
ENDBRANCH  16  17
ENDBRANCH   1  16
TORSDOF 4
ENDMDL
