MODEL 1
REMARK minimizedAffinity -3.97705245
REMARK minimizedRMSD -1
REMARK minimizedAffinity -5.29794264
REMARK minimizedRMSD -1
REMARK  3 active torsions:
REMARK  status: ('A' for Active; 'I' for Inactive)
REMARK    1  A    between atoms: N2_2  and  C5_5 
REMARK    2  A    between atoms: C5_5  and  C8_7 
REMARK    3  A    between atoms: C8_7  and  C9_8 
ROOT
ATOM      1  C8  <0> A   1      30.308  45.569  29.433  1.00  0.00     0.037 C 
ENDROOT
BRANCH   1   2
ATOM      2  C5  <0> A   1      30.313  45.632  30.961  1.00  0.00     0.181 C 
ATOM      3  C7  <0> A   1      29.432  46.792  31.427  1.00  0.00     0.040 C 
BRANCH   2   4
ATOM      4  N2  <0> A   1      29.791  44.371  31.504  1.00  0.00    -0.075 N 
ATOM      5  C1  <0> A   1      28.760  44.661  32.511  1.00  0.00     0.267 C 
ATOM      6  H3  <0> A   1      30.542  43.853  31.933  1.00  0.00     0.277 HD
ATOM      7  H4  <0> A   1      29.388  43.824  30.758  1.00  0.00     0.277 HD
ENDBRANCH   2   4
ENDBRANCH   1   2
BRANCH   1   8
ATOM      8  C9  <0> A   1      29.965  46.949  28.866  1.00  0.00    -0.013 C 
ATOM      9  C14 <0> A   1      29.187  46.784  27.559  1.00  0.00     0.005 C 
ATOM     10  C13 <0> A   1      28.844  48.164  26.994  1.00  0.00     0.000 C 
ATOM     11  C12 <0> A   1      30.133  48.941  26.726  1.00  0.00     0.000 C 
ATOM     12  C11 <0> A   1      30.911  49.105  28.034  1.00  0.00     0.000 C 
ATOM     13  C10 <0> A   1      31.255  47.726  28.599  1.00  0.00     0.005 C 
ENDBRANCH   1   8
TORSDOF 3
ENDMDL
