MODEL 1
REMARK minimizedAffinity -2.62990141
REMARK minimizedRMSD -1
REMARK minimizedAffinity -6.38546276
REMARK minimizedRMSD -1
REMARK  2 active torsions:
REMARK  status: ('A' for Active; 'I' for Inactive)
REMARK    1  A    between atoms: C4_4  and  C5_5 
REMARK       I    between atoms: C5_5  and  N7_7 
REMARK    2  A    between atoms: N7_7  and  C8_8 
ROOT
ATOM      1  C5  ZIN A   1      31.059  47.991  30.714  1.00  0.00     0.273 C 
ATOM      2  O6  ZIN A   1      30.823  46.812  30.895  1.00  0.00    -0.266 OA
ATOM      3  N7  ZIN A   1      31.053  48.847  31.756  1.00  0.00    -0.351 N 
ATOM      4  H31 ZIN A   1      31.241  49.787  31.612  1.00  0.00     0.163 HD
ENDROOT
BRANCH   3   5
ATOM      5  C8  ZIN A   1      30.759  48.353  33.116  1.00  0.00     0.088 C 
ATOM      6  C18 ZIN A   1      29.956  49.414  33.853  1.00  0.00     0.058 C 
ATOM      7  C16 ZIN A   1      29.923  49.208  35.358  1.00  0.00     0.190 C 
ATOM      8  C15 ZIN A   1      30.630  50.388  36.043  1.00  0.00     0.033 C 
ATOM      9  N19 ZIN A   1      30.565  47.973  35.791  1.00  0.00    -0.066 N 
ATOM     10  C14 ZIN A   1      32.108  50.386  35.646  1.00  0.00     0.004 C 
ATOM     11  C13 ZIN A   1      32.739  49.037  36.001  1.00  0.00     0.033 C 
ATOM     12  C11 ZIN A   1      31.943  47.912  35.321  1.00  0.00     0.190 C 
ATOM     13  C10 ZIN A   1      32.076  48.046  33.814  1.00  0.00     0.058 C 
ATOM     14  H20 ZIN A   1      30.609  48.014  36.820  1.00  0.00     0.280 HD
ATOM     15  C21 ZIN A   1      29.796  46.785  35.451  1.00  0.00     0.270 C 
ENDBRANCH   3   5
BRANCH   1  16
ATOM     16  C4  ZIN A   1      31.352  48.484  29.357  1.00  0.00     0.157 A 
ATOM     17  N3  ZIN A   1      30.509  48.572  28.351  1.00  0.00    -0.166 NA
ATOM     18  N2  ZIN A   1      31.068  49.042  27.295  1.00  0.00    -0.273 N 
ATOM     19  C1  ZIN A   1      30.380  49.252  26.019  1.00  0.00     0.180 C 
ATOM     20  C27 ZIN A   1      32.393  49.316  27.515  1.00  0.00     0.065 A 
ATOM     21  C22 ZIN A   1      32.644  48.976  28.858  1.00  0.00     0.028 A 
ATOM     22  C26 ZIN A   1      33.427  49.831  26.740  1.00  0.00     0.032 A 
ATOM     23  C23 ZIN A   1      33.916  49.144  29.397  1.00  0.00     0.016 A 
ATOM     24  C24 ZIN A   1      34.919  49.646  28.615  1.00  0.00     0.001 A 
ATOM     25  C25 ZIN A   1      34.679  49.989  27.291  1.00  0.00     0.002 A 
ENDBRANCH   1  16
TORSDOF 2
ENDMDL
