MODEL 1
REMARK minimizedAffinity -4.61964989
REMARK minimizedRMSD -1
REMARK minimizedAffinity -6.33348799
REMARK minimizedRMSD -1
REMARK  11 active torsions:
REMARK  status: ('A' for Active; 'I' for Inactive)
REMARK    1  A    between atoms: N1_1  and  C5_5 
REMARK    2  A    between atoms: C5_5  and  C7_6 
REMARK    3  A    between atoms: C5_5  and  C23_21 
REMARK    4  A    between atoms: C7_6  and  C8_7 
REMARK    5  A    between atoms: C8_7  and  C9_8 
REMARK       I    between atoms: C9_8  and  N11_10 
REMARK    6  A    between atoms: N11_10  and  C12_11 
REMARK    7  A    between atoms: C12_11  and  C14_12 
REMARK    8  A    between atoms: C12_11  and  C16_14 
REMARK    9  A    between atoms: C14_12  and  S15_13 
REMARK       I    between atoms: C16_14  and  N18_16 
REMARK   10  A    between atoms: N18_16  and  C19_17 
REMARK   11  A    between atoms: C19_17  and  C20_18 
ROOT
ATOM      1  C9  ZIN A   1      31.625  49.065  28.795  1.00  0.00     0.218 C 
ATOM      2  O10 ZIN A   1      32.753  48.858  28.399  1.00  0.00    -0.274 OA
ATOM      3  N11 ZIN A   1      31.363  49.061  30.116  1.00  0.00    -0.347 N 
ATOM      4  H30 ZIN A   1      30.461  49.227  30.433  1.00  0.00     0.163 HD
ENDROOT
BRANCH   3   5
ATOM      5  C12 ZIN A   1      32.441  48.807  31.076  1.00  0.00     0.185 C 
BRANCH   5   6
ATOM      6  C14 ZIN A   1      32.872  50.127  31.719  1.00  0.00     0.105 C 
BRANCH   6   7
ATOM      7  S15 ZIN A   1      34.646  50.385  31.439  1.00  0.00    -0.180 SA
ATOM      8  H33 ZIN A   1      34.880  51.561  32.048  1.00  0.00     0.101 HD
ENDBRANCH   6   7
ENDBRANCH   5   6
BRANCH   5   9
ATOM      9  C16 ZIN A   1      31.950  47.863  32.144  1.00  0.00     0.241 C 
ATOM     10  O17 ZIN A   1      32.509  47.821  33.219  1.00  0.00    -0.271 OA
ATOM     11  N18 ZIN A   1      30.891  47.065  31.902  1.00  0.00    -0.349 N 
ATOM     12  H34 ZIN A   1      30.445  47.098  31.042  1.00  0.00     0.163 HD
BRANCH  11  13
ATOM     13  C19 ZIN A   1      30.415  46.148  32.941  1.00  0.00     0.235 C 
BRANCH  13  14
ATOM     14  C20 ZIN A   1      28.917  46.009  32.839  1.00  0.00     0.191 C 
ATOM     15  O21 ZIN A   1      28.423  44.935  32.544  1.00  0.00    -0.647 OA
ATOM     16  O22 ZIN A   1      28.200  46.973  33.050  1.00  0.00    -0.647 OA
ENDBRANCH  13  14
ENDBRANCH  11  13
ENDBRANCH   5   9
ENDBRANCH   3   5
BRANCH   1  17
ATOM     17  C8  ZIN A   1      30.516  49.326  27.807  1.00  0.00     0.105 C 
BRANCH  17  18
ATOM     18  C7  ZIN A   1      29.292  48.488  28.181  1.00  0.00     0.053 C 
BRANCH  18  19
ATOM     19  C5  ZIN A   1      29.235  47.244  27.293  1.00  0.00     0.283 C 
BRANCH  19  20
ATOM     20  N1  ZIN A   1      27.854  47.025  26.844  1.00  0.00    -0.065 N 
ATOM     21  H2  ZIN A   1      27.816  46.205  26.258  1.00  0.00     0.275 HD
ATOM     22  H3  ZIN A   1      27.539  47.828  26.319  1.00  0.00     0.275 HD
ATOM     23  H4  ZIN A   1      27.256  46.893  27.647  1.00  0.00     0.275 HD
ENDBRANCH  19  20
BRANCH  19  24
ATOM     24  C23 ZIN A   1      29.704  46.045  28.077  1.00  0.00     0.204 C 
ATOM     25  O24 ZIN A   1      30.087  46.180  29.226  1.00  0.00    -0.646 OA
ATOM     26  O25 ZIN A   1      29.700  44.941  27.561  1.00  0.00    -0.646 OA
ENDBRANCH  19  24
ENDBRANCH  18  19
ENDBRANCH  17  18
ENDBRANCH   1  17
TORSDOF 11
ENDMDL
